/*--------------------------------*- C++ -*----------------------------------*\
| =========                 |                                                 |
| \\      /  F ield         | OpenFOAM: The Open Source CFD Toolbox           |
|  \\    /   O peration     | Version:  dev                                   |
|   \\  /    A nd           | Web:      www.OpenFOAM.org                      |
|    \\/     M anipulation  |                                                 |
\*---------------------------------------------------------------------------*/
FoamFile
{
    version     2.0;
    format      ascii;
    class       dictionary;
    object      blockMeshDict;
}
// * * * * * * * * * * * * * * * * * * * * * * * * * * * * * * * * * * * * * //
convertToMeters 1;

vertices

(

(0 0 0) // 0

(2 0 0) // 1

(2 2 0) // 2

(0 2 0) // 3

(0.525 0.65 0) // 4

(1.475 0.65 0) // 5

(1.475 1.35 0) // 6

(0.525 1.35 0) // 7

(0.625 0.75 0) // 8

(1.375 0.75 0) //9

(1.375 1.25 0) //10

(0.625 1.25 0) //11

(0.7 0.8 0) // 12

(1.3 0.8 0) // 13

(1.3 1.2 0) // 14

(0.7 1.2 0) // 15

(0.7 0.925 0) // 16

(1.3 0.925 0) // 17

(1.3 1.075 0) // 18

(0.7 1.075 0) // 19

(0.75 0.975 0) // 20

(1.25 0.975 0) // 21

(1.25 1.025 0) // 22

(0.75 1.025 0) //23

(0.7 0.8 0.6) // 24

(1.3 0.8 0.6) // 25

(1.3 1.2 0.6) // 26

(0.7 1.2 0.6) // 27

(0.525 0.65 0.8) // 28

(1.475 0.65 0.8) // 29

(1.475 1.35 0.8) // 30

(0.525 1.35 0.8) // 31

(0.7 0.65 0.8) // 32

(1.3 0.65 0.8) //33

(1.3 1.35 0.8) // 34

(0.7 1.35 0.8) // 35

(0.7 0.8 0.8) // 36 

(1.3 0.8 0.8) // 37

(1.3 1.2 0.8) //38

(0.7 1.2 0.8) // 39

(0 0 2) // 40 

(2 0 2) // 41

(2 2 2) // 42

(0 2 2) // 43

(0.525 0 2) // 44

(1.475 0 2) // 45

(1.475 2 2) // 46

(0.525 2 2) // 47

//to complete the blocks

(0.7 0.65 0) // 48

(1.3 0.65 0) // 49

(1.3 1.35 0) // 50

(0.7 1.35 0) // 51

(0.525 0 0) // 52

(1.475 0 0) // 53

(1.475 2 0) // 54

(0.525 2 0)//55


);

// Defining blocks:

blocks

(

//level1-finest mesh:

hex (24 25 26 27 36 37 38 39) (144 96 144) simpleGrading (1 1 1)

//level2-8.333mm mesh:

hex (4 48 51 7) (21 84 96) simpleGrading (1 1 1)

hex (49 5 6 50 33 29 30 34) (21 84 96) simpleGrading (1 1 1)

hex (48 49 13 12 32 33 37 36) (72 18 96) simpleGrading(1 1 1)

hex (15 14 50 51 39 38 34 35) ( 72 18 96) simpleGrading(1 1 1)

hex (24 25 26 27 36 37 38 39) (72 48 24) simpleGrading(1 1 1)
// block0 - positive x O-grid block

hex (5 1 0 4 13 9 8 12 ) AB

(6 10 40)

simpleGrading (5 1 1)

// block1 - positive y O-grid block

hex (6 2 1 5 14 10 9 13 ) AB
(6 10 40)

simpleGrading (5 1 1)

// block2 - negative x O-grid block

hex (7 3 2 6 15 11 10 14 ) AB

(6 10 40)

simpleGrading (5 1 1)

// block3 - negative y O-grid block

hex (4 0 3 7 12 8 11 15 ) AB

(6 10 40)

simpleGrading (5 1 1)

// block4 - central O-grid block

hex (0 1 2 3 8 9 10 11 ) AB

(10 10 40)

simpleGrading (1 1 1)

);

edges

(

//Plane A:

arc 0 1 (0.0728 0 -2)

arc 1 2 (0 0.0728 -2)

arc 2 3 (-0.0728 0 -2)

arc 3 0 (0 -0.0728 -2)

arc 4 5 (0.13 0 -2)

arc 5 6 (0 0.13 -2)

arc 6 7 (-0.13 0 -2)

arc 7 4 (0 -0.13 -2)

//Plane B:

arc 8 9 (0.0728 0 0)

arc 9 10 (0 0.0728 0)

arc 10 11 (-0.0728 0 0)

arc 11 8 (0 -0.0728 0)

arc 12 13 (0.13 0 0)

arc 13 14 (0 0.13 0)

arc 14 15 (-0.13 0 0)

arc 15 12 (0 -0.13 0)

);

// Defining patches:

patches

(

patch inlet

(

(1 5 4 0)

(2 6 5 1)

(3 7 6 2)

(0 4 7 3)

(3 2 1 0)

)

patch outlet

(

(13 9 8 12)

(14 10 9 13)

(15 11 10 14)

(12 8 11 15)

(8 9 10 11)
)

wall wallDiffuser

(

(4 5 13 12)

(5 6 14 13)

(6 7 15 14)

(7 4 12 15)

)

);
// ************************************************************************* //
