/*--------------------------------*- C++ -*----------------------------------*\
| =========                 |                                                 |
| \\      /  F ield         | OpenFOAM: The Open Source CFD Toolbox           |
|  \\    /   O peration     | Version:  dev                                   |
|   \\  /    A nd           | Web:      www.OpenFOAM.org                      |
|    \\/     M anipulation  |                                                 |
\*---------------------------------------------------------------------------*/
FoamFile
{
    version     2.0;
    format      ascii;
    class       dictionary;
    object      blockMeshDict;
}
// * * * * * * * * * * * * * * * * * * * * * * * * * * * * * * * * * * * * * //

convertToMeters 1;

vertices
(
    (-0.25 -0.025 0)//0
    (0 -0.025 0)//1
    (0 0.025 0)//2
    (-0.25 0.025 0)//3
    (-0.25 -0.025 0.6)//4
    (0 -0.025 0.6)//5
    (0 0.025 0.6)//6
    (-0.25 0.025 0.6)//7
    (0.25 -0.025 0)//8
    (0.25 0.025 0)//9
    (0.25 -0.025 0.6)//10
    (0.25 0.025 0.6)//11

);

blocks
(
    hex (0 1 2 3 4 5 6 7) (60 12 144) simpleGrading (1 1 1)
    hex (1 8 9 2 5 10 11 6) (60 12 144) simpleGrading (1 1 1)
);

edges
(
);

boundary
(
    inlet
    {
        type patch;
        faces
        (
            (0 3 2 1)
	    (1 2 9 8)
        );
    }
    outlet
    {
        type patch;
	faces
	(
	    (4 5 6 7)
	    (5 10 11 6)
	);
    }
//    fixedWalls
//    {
//        type wall;
//        faces
//        (
//            (0 4 7 3)
//            (2 6 5 1)
//            (1 5 4 0)
//	    (2 3 7 6)
//	    (8 9 11 10)
//	    (2 6 11 9)
//	    (1 8 10 5)
//        );
//    }
//    frontAndBack
//    {
//        type empty;
//        faces
//        (
//            (0 3 2 1)
//            (4 5 6 7)
//        );
//    }
);

mergePatchPairs
(
);

// ************************************************************************* //
