/*--------------------------------*- C++ -*----------------------------------*\
| =========                 |                                                 |
| \\      /  F ield         | OpenFOAM: The Open Source CFD Toolbox           |
|  \\    /   O peration     | Version:  dev                                   |
|   \\  /    A nd           | Web:      www.OpenFOAM.org                      |
|    \\/     M anipulation  |                                                 |
\*---------------------------------------------------------------------------*/
FoamFile
{
    version     2.0;
    format      ascii;
    class       dictionary;
    object      blockMeshDict;
}
// * * * * * * * * * * * * * * * * * * * * * * * * * * * * * * * * * * * * * //

convertToMeters 1;

vertices
(
    (-0.25 -0.025 0)//0
    (0.25 -0.025 0)//1
    (0.25 0.025 0)//2

    (-0.25 0.025 0)//3
    (-0.25 -0.025 0.6)//4
    (0.25 -0.025 0.6)//5
    (0.25 0.025 0.6)//6
    (-0.25 0.025 0.6)//7
    (-0.3 -0.075 0)//8
    (-0.25 -0.075 0)//9
    (-0.25 0.075 0)//10
    (-0.3 0.075 0)//11
    (-0.3 -0.075 0.6)//12
    (-0.25 -0.075 0.6)//13
    (-0.25 0.075 0.6)//14
    (-0.3 0.075 0.6)//15
    (0.3 -0.075 0)//16
    (0.25 -0.075 0)//17
    (0.25 0.075 0)//18
    (0.3 0.075 0)//19
    (0.3 -0.075 0.6)//20
    (0.25 -0.075 0.6)//21
    (0.25 0.075 0.6)//22
    (0.3 0.075 0.6)//23
    (-0.3 -0.25 0)//24
    (0.3 -0.25 0)//25
    (-0.3 -0.25 0.6)//26
    (0.3 -0.25 0.6)//27
    (-0.3 0.25 0)//28
    (0.3 0.25 0)//29
    (-0.3 0.25 0.6)//30
    (0.3 0.25 0.6)//31
    (-0.375 -0.25 0) //32
    (-0.375 0.25 0) //33
    (-0.375 -0.25 0.6) // 34
    (-0.375 0.25 0.6) //35
    (0.375 -0.25 0) // 36
    (0.375 0.25 0) // 37
    (0.375 -0.25 0.6) // 38
    (0.375 0.25 0.6) // 39
    (-0.475 -0.35 0) //40 
    (-0.375 -0.35 0) //41
    (-0.375 0.35 0) // 42
    (-0.475 0.35 0) //43
    (-0.475 -0.35 0.6) //44 
    (-0.375 -0.35 0.6) //45
    (-0.375 0.35 0.6) // 46
    (-0.475 0.35 0.6) //47
    (0.375 -0.35 0) //48
    (0.475 -0.35 0) //49
    (0.475 0.35 0) // 50 
    (0.375 0.35 0) // 51
    (0.375 -0.35 0.6) //52
    (0.475 -0.35 0.6) //53
    (0.475 0.35 0.6) // 54 
    (0.375 0.35 0.6) // 55
    (-0.5 -0.35 0) // 56
    (-0.5 0.35 0) //57
    (-0.5 -0.35 0.6) // 58
    (-0.5 0.35 0.6) //59
    (0.5 -0.35 0) //60
    (0.5 0.35 0) //61
    (0.5 -0.35 0.6) //62
    (0.5 0.35 0.6) //63
    (-0.5 -0.35 0.8) //64
    (0.5 -0.35 0.8) //65
    (0.5 0.35 0.8) //66
    (-0.5 0.35 0.8) //67
    (-1 -1 0) //68
    (-0.5 -1 0) // 69
    (-0.5 1 0) // 70 
    (-1 1 0) // 71
    (-1 -1 0.8) //72
    (-0.5 -1 0.8) // 73
    (-0.5 1 0.8) // 74 
    (-1 1 0.8) // 75
    (0.5 -1 0) //76
    (1 -1 0) //77
    (1 1 0) // 78
    (0.5 1 0) //79
    (0.5 -1 0.8) //80 
    (1 -1 0.8) //81 
    (1 1 0.8) // 82 
    (0.5 1 0.8) //83
    (-1 -1 2) //84
    (1 -1 2) //85
    (1 1 2) // 86
    (-1 1 2) //87
 
);

blocks
(
    hex (0 1 2 3 4 5 6 7) (40 4 48) simpleGrading (1 1 1) //(120 12 144)
    hex (8 9 10 11 12 13 14 15) (4 12 48) simpleGrading (1 1 1) // (12 36 144)
    hex (17 16 19 18 21 20 23 22) (4 12 48) simpleGrading (1 1 1) // (12 36 144)
    hex (3 2 18 10 7 6 22 14) (40 4 48) simpleGrading (1 1 1) //(120 12 144)
    hex (9 17 1 0 13 21 5 4) (40 4 48) simpleGrading (1 1 1) //(120 12 144)
    hex (24 25 16 8 26 27 20 12) (48 14 48) simpleGrading (1 1 1)// (144 42 144)
    hex (11 19 29 28 15 23 31 30) (48 14 48) simpleGrading (1 1 1)// (144 42 144)
    hex (32 24 28 33 34 26 30 35) (3 20 24) simpleGrading (1 1 1)// (9 60 72)
    hex (25 36 37 29 27 38 39 31) (3 20 24) simpleGrading (1 1 1)// (9 60 72)
    hex (40 41 42 43 44 45 46 47) (4 28 24) simpleGrading (1 1 1)// (12 84 72)
    hex (48 49 50 51 52 53 54 55) (4 28 24) simpleGrading (1 1 1)// (12 84 72)
    hex (41 48 36 32 45 52 38 34) (30 4 24) simpleGrading (1 1 1)// (90 12 72)
    hex (33 37 51 42 35 39 55 46) (30 4 24) simpleGrading (1 1 1)// (90 12 72)
    hex (56 40 43 57 58 44 47 59) (1 28 24) simpleGrading (1 1 1)// (3 84 72)
    hex (49 60 61 50 53 62 63 54) (1 28 24) simpleGrading (1 1 1)// (3 84 72)
    hex (58 62 63 59 64 65 66 67) (40 28 8) simpleGrading (1 1 1)// (120 84 24))
    hex (68 69 70 71 72 73 74 75) (10 40 16) simpleGrading (1 1 1)// (30 120 48))
    hex (76 77 78 79 80 81 82 83) (10 40 16) simpleGrading (1 1 1)// (30 120 48))
    hex (69 76 60 56 73 80 65 64) (20 13 16) simpleGrading (1 1 1)// (60 39 48))
    hex (57 61 79 70 67 66 83 74) (20 13 16) simpleGrading (1 1 1)// (60 39 48))
    hex (72 81 82 75 84 85 86 87) (40 40 24) simpleGrading (1 1 1)// (120 120 72))
);

edges
(
);
boundary
(
    inletFuel
   {
        type patch;
        faces
        (
            (0 3 2 1)
        );
    }
    inletCoflow
   {
        type patch;
        faces
        (
            (32 33 28 24)
       	    (11 28 29 19)
	    (25 29 37 36)
	    (24 8 16 25)
        );
    }
    outlet
    {
        type patch;
	faces
	(
	    (84 85 86 87)
	);
    }
    fixedWalls
    {
        type wall;
        faces
        (
            (8 11 10 9) // inner frame for fuel flow
            (3 10 18 2) // inner frame for fuel flow
            (17 18 19 16) // inner frame for fuel flow
	    (9 0 1 17) // inner frame for fuel flow
	    (40 43 42 41) // outer frame for coflow
	    (33 42 51 37) //outer frame for coflow
	    (48 51 50 49) // outer frame for coflow
	    (41 32 36 48) // outer frame for coflow
        );
    }
    entrainmentBottom
   {
        type patch;
        faces
        (
            (56 57 43 40)
       	    (49 50 61 60)
	    (68 71 70 69)
	    (57 70 79 61)
	    (76 79 78 77)
 	    (69 56 60 76)
        );
    }
    entrainmentWestSide
   {
        type patch;
        faces
        (
	    (68 72 75 71) //side -west- 0-0.8mheight
	    (72 84 87 75) //side -west -0.8-2m height
        );
    }
    entrainmentNorthSide
   {
        type patch;
        faces
        (
	    (71 75 74 70) 
	    (70 74 83 79)
	    (79 83 82 78)
	    (75 87 86 82) // side-north 0.8-2 m height
        );
    }
    entrainmentEastSide
   {
        type patch;
        faces
        (
	    (77 78 82 81) //side -east 0-0.8m
	    (81 82 86 85) // side -east 0.8-2m
        );
    }
    entrainmentSouthSide
   {
        type patch;
        faces
        (
	    (68 69 73 72) //side -south
	    (69 76 80 73) 
	    (76 77 81 80)
	    (72 81 85 84)
        );
    }
);

mergePatchPairs
(
);

// ************************************************************************* //
