/*--------------------------------*- C++ -*----------------------------------*\
| =========                 |                                                 |
| \\      /  F ield         | OpenFOAM: The Open Source CFD Toolbox           |
|  \\    /   O peration     | Version:  dev                                   |
|   \\  /    A nd           | Web:      www.OpenFOAM.org                      |
|    \\/     M anipulation  |                                                 |
\*---------------------------------------------------------------------------*/
FoamFile
{
    version     2.0;
    format      ascii;
    class       dictionary;
    object      blockMeshDict;
}
// * * * * * * * * * * * * * * * * * * * * * * * * * * * * * * * * * * * * * //

convertToMeters 1;

vertices
(
    (-0.25 -0.025 0)//0
    (0.25 -0.025 0)//1
    (0.25 0.025 0)//2

    (-0.25 0.025 0)//3
    (-0.25 -0.025 0.6)//4
    (0.25 -0.025 0.6)//5
    (0.25 0.025 0.6)//6
    (-0.25 0.025 0.6)//7
    (-0.3 -0.075 0)//8
    (-0.25 -0.075 0)//9
    (-0.25 0.075 0)//10
    (-0.3 0.075 0)//11
    (-0.3 -0.075 0.6)//12
    (-0.25 -0.075 0.6)//13
    (-0.25 0.075 0.6)//14
    (-0.3 0.075 0.6)//15
    (0.3 -0.075 0)//16
    (0.25 -0.075 0)//17
    (0.25 0.075 0)//18
    (0.3 0.075 0)//19
    (0.3 -0.075 0.6)//20
    (0.25 -0.075 0.6)//21
    (0.25 0.075 0.6)//22
    (0.3 0.075 0.6)//23
    (-0.3 -0.2 0)//24
    (0.3 -0.2 0)//25
    (-0.3 -0.2 0.6)//26
    (0.3 -0.2 0.6)//27
    (-0.3 0.2 0)//28
    (0.3 0.2 0)//29
    (-0.3 0.2 0.6)//30
    (0.3 0.2 0.6)//31
    (-0.375 -0.25 0) //32
    (-0.3 -0.25 0) //33
    (-0.3 0.25 0) //34
    (-0.375 0.25 0) //35
    (-0.375 -0.25 0.6) //36
    (-0.3 -0.25 0.6) //37
    (-0.3 0.25 0.6) //38
    (-0.375 0.25 0.6) //39
    (0.3 -0.25 0) // 40
    (0.375 -0.25 0) // 41
    (0.375 0.25 0) // 42 
    (0.3 0.25 0) // 43
    (0.3 -0.25 0.6) // 44
    (0.375 -0.25 0.6) // 45
    (0.375 0.25 0.6) // 46
    (0.3 0.25 0.6) // 47
    (-0.3 -0.2 0)//48
    (0.3 -0.2 0)//49
    (-0.3 -0.2 0.6)//50
    (0.3 -0.2 0.6)//51
    (-0.3 0.2 0)//52
    (0.3 0.2 0)//53
    (-0.3 0.2 0.6)//54
    (0.3 0.2 0.6)//55
    (-0.375 -0.25 0.8) //56
    (0.375 -0.25 0.8) // 57
    (0.375 0.25 0.8) // 58
    (-0.375 0.25 0.8) //59
 



 
);

blocks
(
    hex (0 1 2 3 4 5 6 7) (20 2 24) simpleGrading (1 1 1) //(120 12 144)
    hex (8 9 10 11 12 13 14 15) (2 6 24) simpleGrading (1 1 1) // (12 36 144)
    hex (17 16 19 18 21 20 23 22) (2 6 24) simpleGrading (1 1 1) // (12 36 144)
    hex (3 2 18 10 7 6 22 14) (20 2 24) simpleGrading (1 1 1) //(120 12 144)
    hex (9 17 1 0 13 21 5 4) (20 2 24) simpleGrading (1 1 1) //(120 12 144)
    hex (24 25 16 8 26 27 20 12) (24 5 24) simpleGrading (1 1 1)// (144 30 144)
    hex (11 19 29 28 15 23 31 30) (24 5 24) simpleGrading (1 1 1)// (144 30 144)
    hex (32 33 34 35 36 37 38 39) (2 10 12) simpleGrading (1 1 1)// (9 60 72)
    hex (40 41 42 43 44 45 46 47) (2 10 12) simpleGrading (1 1 1)// (9 60 72)
    hex (33 40 49 48 37 44 51 50) (12 1 12) simpleGrading (1 1 1)// (72 6 72)
    hex (52 53 43 34 54 55 47 38) (12 1 12) simpleGrading (1 1 1)// (72 6 72)
    hex (36 45 46 39 56 57 58 59) (15 10 4) simpleGrading (1 1 1)// (90 60 24)


);

edges
(
);
boundary
(
    inlet
   {
        type patch;
        faces
        (
            (0 3 2 1)
        );
    }
    outlet
    {
        type patch;
	faces
	(
	    (4 5 6 7)
//	    (5 10 11 6)
	);
    }
//    fixedWalls
//    {
//        type wall;
//        faces
//        (
//            (0 4 7 3)
//            (2 6 5 1)
//            (1 5 4 0)
//	    (2 3 7 6)
//	    (8 9 11 10)
//	    (2 6 11 9)
//	    (1 8 10 5)
//        );
//    }
//    frontAndBack
//    {
//        type empty;
//        faces
//        (
//            (0 3 2 1)
//            (4 5 6 7)
//        );
//    }
);

mergePatchPairs
(
);

// ************************************************************************* //
